@<TRIPOS>MOLECULE
TOLUEN
15 15 1
SMALL
USER_CHARGES
@<TRIPOS>ATOM
1	C1    -1.8310     1.9233     0.0000	C.2	1	noname	-0.0672
2	C2    -3.1646     1.1532     0.0000	C.2	1	noname	-0.0641
3	C3    -3.1646    -0.3868     0.0000	C.2	1	noname	-0.0707
4	C4    -1.8310    -1.1568     0.0000	C.2	1	noname	-0.0641
5	C5    -0.4973    -0.3868     0.0000	C.2	1	noname	-0.0672
6	C6    -0.4973     1.1532     0.0000	C.2	1	noname	-0.0597
7	C7     0.8364     1.9232     0.0000	C.3	1	noname	-0.0024
8	H1    -1.8310     3.4633     0.0000	H	1	noname	0.0625
9	H2    -4.4983     1.9232     0.0000	H	1	noname	0.0622
10	H3    -4.4983    -1.1568     0.0000	H	1	noname	0.0622
11	H4    -1.8310    -2.6968     0.0000	H	1	noname	0.0622
12	H5     0.8364    -1.1568     0.0000	H	1	noname	0.0625
13	H6     1.6064     0.5896     0.0000	H	1	noname	0.0279
14	H7     2.1701     2.6932     0.0000	H	1	noname	0.0279
15	H8     0.0664     3.2569     0.0000	H	1	noname	0.0279
@<TRIPOS>BOND
1	1	2	1
2	1	6	2
3	2	3	2
4	3	4	1
5	4	5	2
6	5	6	1
7	6	7	1
8	1	8	1
9	2	9	1
10	3	10	1
11	4	11	1
12	5	12	1
13	7	13	1
14	7	14	1
15	7	15	1
@<TRIPOS>SUBSTRUCTURE
1	noname	1
